       .LIB B540C
*
.MODEL B540C D (
+LEVEL    = 1              IS       = 1.5672e-06     RS       = 0.0209949
+N        = 1.01362        IBV      = 0.0001         CJO      = 8.98694e-10
+VJ       = 0.396195       MJ       = 0.457747       FC       = 0.5
+XTI      = 0.000352915    EG       = 0.750278       TRS1     = 0.00406277
+TRS2     = 2.17553e-07    BV       = 50             TT       = 0 )
*
.ENDL B540C
